iidm/iidm-xml-converter/src/test/resources/sim1-CONTROL.xiidm
<?xml version="1.0" encoding="UTF-8"?>
<iidm:network xmlns:iidm="http://www.itesla_project.eu/schema/iidm/1_0" id="sim1" caseDate="2013-01-15T18:45:00.000+01:00" forecastDistance="0" sourceFormat="test">
    <iidm:substation id="P1">
        <iidm:voltageLevel id="VLGEN">
            <iidm:generator id="GEN" voltageRegulatorOn="true" targetP="607.0" targetV="24.5" targetQ="301.0"></iidm:generator>
        </iidm:voltageLevel>
    </iidm:substation>
    <iidm:substation id="P2">
        <iidm:twoWindingsTransformer id="NHV2_NLOAD">
            <iidm:ratioTapChanger tapPosition="1" regulating="true" targetV="158.0">
                <iidm:terminalRef id="NHV2_NLOAD" side="TWO"/>
            </iidm:ratioTapChanger>
        </iidm:twoWindingsTransformer>
    </iidm:substation>
</iidm:network>
